options trace
options trtol=1
spice

.model mos logic
.model cross sw vt=2.5 vh=1.25

U1 3 1 2 mos nor
* U1 3 1 mos inv
V1 1 0 pulse iv=0 pv=5 delay=0 rise=500p
V2 2 0 pulse iv=0 pv=5 delay=300p rise=500p
S1 0 0 1 0 cross
S1 0 0 2 0 cross

C1 4 0 .1p
R1 4 3 10k

.list

.print tr control(0) hidden(0) la(3) fi(3) v(nodes) l(nodes)
.tr 2n trace=n basic
.status notime
.end
