options trace
spice

.model mos logic
.model cross sw vt=2.5 vh=1.25

U1 2 1 mos inv
V1 1 0 pulse iv=0 pv=5 delay=0 rise=500p
S1 0 0 1 0 cross

C1 3 0 .1p
R1 3 2 10k

.list

.print tr control(0) hidden(0) la(2) fi(2) v(nodes) l(nodes)
.tr 2n trace=a basic
.status notime
.end
