30x30 grid test

.subckt grids top1 top900 bot450
.parameter r=1
.parameter l=1e-6
.parameter c=1e-9
Rtop_1_2 top1 top2 {r}
Ltop_1_2 top1 top2 {l}
Rbot_1_2 bot1 bot2 {r}
Lbot_1_2 bot1 bot2 {l}
Rtop_1_31 top1 top31 {r}
Ltop_1_31 top1 top31 {l}
Rbot_1_31 bot1 bot31 {r}
Lbot_1_31 bot1 bot31 {l}
C1 top1 bot1 {c}
Rtop_2_3 top2 top3 {r}
Ltop_2_3 top2 top3 {l}
Rbot_2_3 bot2 bot3 {r}
Lbot_2_3 bot2 bot3 {l}
Rtop_2_32 top2 top32 {r}
Ltop_2_32 top2 top32 {l}
Rbot_2_32 bot2 bot32 {r}
Lbot_2_32 bot2 bot32 {l}
C2 top2 bot2 {c}
Rtop_3_4 top3 top4 {r}
Ltop_3_4 top3 top4 {l}
Rbot_3_4 bot3 bot4 {r}
Lbot_3_4 bot3 bot4 {l}
Rtop_3_33 top3 top33 {r}
Ltop_3_33 top3 top33 {l}
Rbot_3_33 bot3 bot33 {r}
Lbot_3_33 bot3 bot33 {l}
C3 top3 bot3 {c}
Rtop_4_5 top4 top5 {r}
Ltop_4_5 top4 top5 {l}
Rbot_4_5 bot4 bot5 {r}
Lbot_4_5 bot4 bot5 {l}
Rtop_4_34 top4 top34 {r}
Ltop_4_34 top4 top34 {l}
Rbot_4_34 bot4 bot34 {r}
Lbot_4_34 bot4 bot34 {l}
C4 top4 bot4 {c}
Rtop_5_6 top5 top6 {r}
Ltop_5_6 top5 top6 {l}
Rbot_5_6 bot5 bot6 {r}
Lbot_5_6 bot5 bot6 {l}
Rtop_5_35 top5 top35 {r}
Ltop_5_35 top5 top35 {l}
Rbot_5_35 bot5 bot35 {r}
Lbot_5_35 bot5 bot35 {l}
C5 top5 bot5 {c}
Rtop_6_7 top6 top7 {r}
Ltop_6_7 top6 top7 {l}
Rbot_6_7 bot6 bot7 {r}
Lbot_6_7 bot6 bot7 {l}
Rtop_6_36 top6 top36 {r}
Ltop_6_36 top6 top36 {l}
Rbot_6_36 bot6 bot36 {r}
Lbot_6_36 bot6 bot36 {l}
C6 top6 bot6 {c}
Rtop_7_8 top7 top8 {r}
Ltop_7_8 top7 top8 {l}
Rbot_7_8 bot7 bot8 {r}
Lbot_7_8 bot7 bot8 {l}
Rtop_7_37 top7 top37 {r}
Ltop_7_37 top7 top37 {l}
Rbot_7_37 bot7 bot37 {r}
Lbot_7_37 bot7 bot37 {l}
C7 top7 bot7 {c}
Rtop_8_9 top8 top9 {r}
Ltop_8_9 top8 top9 {l}
Rbot_8_9 bot8 bot9 {r}
Lbot_8_9 bot8 bot9 {l}
Rtop_8_38 top8 top38 {r}
Ltop_8_38 top8 top38 {l}
Rbot_8_38 bot8 bot38 {r}
Lbot_8_38 bot8 bot38 {l}
C8 top8 bot8 {c}
Rtop_9_10 top9 top10 {r}
Ltop_9_10 top9 top10 {l}
Rbot_9_10 bot9 bot10 {r}
Lbot_9_10 bot9 bot10 {l}
Rtop_9_39 top9 top39 {r}
Ltop_9_39 top9 top39 {l}
Rbot_9_39 bot9 bot39 {r}
Lbot_9_39 bot9 bot39 {l}
C9 top9 bot9 {c}
Rtop_10_11 top10 top11 {r}
Ltop_10_11 top10 top11 {l}
Rbot_10_11 bot10 bot11 {r}
Lbot_10_11 bot10 bot11 {l}
Rtop_10_40 top10 top40 {r}
Ltop_10_40 top10 top40 {l}
Rbot_10_40 bot10 bot40 {r}
Lbot_10_40 bot10 bot40 {l}
C10 top10 bot10 {c}
Rtop_11_12 top11 top12 {r}
Ltop_11_12 top11 top12 {l}
Rbot_11_12 bot11 bot12 {r}
Lbot_11_12 bot11 bot12 {l}
Rtop_11_41 top11 top41 {r}
Ltop_11_41 top11 top41 {l}
Rbot_11_41 bot11 bot41 {r}
Lbot_11_41 bot11 bot41 {l}
C11 top11 bot11 {c}
Rtop_12_13 top12 top13 {r}
Ltop_12_13 top12 top13 {l}
Rbot_12_13 bot12 bot13 {r}
Lbot_12_13 bot12 bot13 {l}
Rtop_12_42 top12 top42 {r}
Ltop_12_42 top12 top42 {l}
Rbot_12_42 bot12 bot42 {r}
Lbot_12_42 bot12 bot42 {l}
C12 top12 bot12 {c}
Rtop_13_14 top13 top14 {r}
Ltop_13_14 top13 top14 {l}
Rbot_13_14 bot13 bot14 {r}
Lbot_13_14 bot13 bot14 {l}
Rtop_13_43 top13 top43 {r}
Ltop_13_43 top13 top43 {l}
Rbot_13_43 bot13 bot43 {r}
Lbot_13_43 bot13 bot43 {l}
C13 top13 bot13 {c}
Rtop_14_15 top14 top15 {r}
Ltop_14_15 top14 top15 {l}
Rbot_14_15 bot14 bot15 {r}
Lbot_14_15 bot14 bot15 {l}
Rtop_14_44 top14 top44 {r}
Ltop_14_44 top14 top44 {l}
Rbot_14_44 bot14 bot44 {r}
Lbot_14_44 bot14 bot44 {l}
C14 top14 bot14 {c}
Rtop_15_16 top15 top16 {r}
Ltop_15_16 top15 top16 {l}
Rbot_15_16 bot15 bot16 {r}
Lbot_15_16 bot15 bot16 {l}
Rtop_15_45 top15 top45 {r}
Ltop_15_45 top15 top45 {l}
Rbot_15_45 bot15 bot45 {r}
Lbot_15_45 bot15 bot45 {l}
C15 top15 bot15 {c}
Rtop_16_17 top16 top17 {r}
Ltop_16_17 top16 top17 {l}
Rbot_16_17 bot16 bot17 {r}
Lbot_16_17 bot16 bot17 {l}
Rtop_16_46 top16 top46 {r}
Ltop_16_46 top16 top46 {l}
Rbot_16_46 bot16 bot46 {r}
Lbot_16_46 bot16 bot46 {l}
C16 top16 bot16 {c}
Rtop_17_18 top17 top18 {r}
Ltop_17_18 top17 top18 {l}
Rbot_17_18 bot17 bot18 {r}
Lbot_17_18 bot17 bot18 {l}
Rtop_17_47 top17 top47 {r}
Ltop_17_47 top17 top47 {l}
Rbot_17_47 bot17 bot47 {r}
Lbot_17_47 bot17 bot47 {l}
C17 top17 bot17 {c}
Rtop_18_19 top18 top19 {r}
Ltop_18_19 top18 top19 {l}
Rbot_18_19 bot18 bot19 {r}
Lbot_18_19 bot18 bot19 {l}
Rtop_18_48 top18 top48 {r}
Ltop_18_48 top18 top48 {l}
Rbot_18_48 bot18 bot48 {r}
Lbot_18_48 bot18 bot48 {l}
C18 top18 bot18 {c}
Rtop_19_20 top19 top20 {r}
Ltop_19_20 top19 top20 {l}
Rbot_19_20 bot19 bot20 {r}
Lbot_19_20 bot19 bot20 {l}
Rtop_19_49 top19 top49 {r}
Ltop_19_49 top19 top49 {l}
Rbot_19_49 bot19 bot49 {r}
Lbot_19_49 bot19 bot49 {l}
C19 top19 bot19 {c}
Rtop_20_21 top20 top21 {r}
Ltop_20_21 top20 top21 {l}
Rbot_20_21 bot20 bot21 {r}
Lbot_20_21 bot20 bot21 {l}
Rtop_20_50 top20 top50 {r}
Ltop_20_50 top20 top50 {l}
Rbot_20_50 bot20 bot50 {r}
Lbot_20_50 bot20 bot50 {l}
C20 top20 bot20 {c}
Rtop_21_22 top21 top22 {r}
Ltop_21_22 top21 top22 {l}
Rbot_21_22 bot21 bot22 {r}
Lbot_21_22 bot21 bot22 {l}
Rtop_21_51 top21 top51 {r}
Ltop_21_51 top21 top51 {l}
Rbot_21_51 bot21 bot51 {r}
Lbot_21_51 bot21 bot51 {l}
C21 top21 bot21 {c}
Rtop_22_23 top22 top23 {r}
Ltop_22_23 top22 top23 {l}
Rbot_22_23 bot22 bot23 {r}
Lbot_22_23 bot22 bot23 {l}
Rtop_22_52 top22 top52 {r}
Ltop_22_52 top22 top52 {l}
Rbot_22_52 bot22 bot52 {r}
Lbot_22_52 bot22 bot52 {l}
C22 top22 bot22 {c}
Rtop_23_24 top23 top24 {r}
Ltop_23_24 top23 top24 {l}
Rbot_23_24 bot23 bot24 {r}
Lbot_23_24 bot23 bot24 {l}
Rtop_23_53 top23 top53 {r}
Ltop_23_53 top23 top53 {l}
Rbot_23_53 bot23 bot53 {r}
Lbot_23_53 bot23 bot53 {l}
C23 top23 bot23 {c}
Rtop_24_25 top24 top25 {r}
Ltop_24_25 top24 top25 {l}
Rbot_24_25 bot24 bot25 {r}
Lbot_24_25 bot24 bot25 {l}
Rtop_24_54 top24 top54 {r}
Ltop_24_54 top24 top54 {l}
Rbot_24_54 bot24 bot54 {r}
Lbot_24_54 bot24 bot54 {l}
C24 top24 bot24 {c}
Rtop_25_26 top25 top26 {r}
Ltop_25_26 top25 top26 {l}
Rbot_25_26 bot25 bot26 {r}
Lbot_25_26 bot25 bot26 {l}
Rtop_25_55 top25 top55 {r}
Ltop_25_55 top25 top55 {l}
Rbot_25_55 bot25 bot55 {r}
Lbot_25_55 bot25 bot55 {l}
C25 top25 bot25 {c}
Rtop_26_27 top26 top27 {r}
Ltop_26_27 top26 top27 {l}
Rbot_26_27 bot26 bot27 {r}
Lbot_26_27 bot26 bot27 {l}
Rtop_26_56 top26 top56 {r}
Ltop_26_56 top26 top56 {l}
Rbot_26_56 bot26 bot56 {r}
Lbot_26_56 bot26 bot56 {l}
C26 top26 bot26 {c}
Rtop_27_28 top27 top28 {r}
Ltop_27_28 top27 top28 {l}
Rbot_27_28 bot27 bot28 {r}
Lbot_27_28 bot27 bot28 {l}
Rtop_27_57 top27 top57 {r}
Ltop_27_57 top27 top57 {l}
Rbot_27_57 bot27 bot57 {r}
Lbot_27_57 bot27 bot57 {l}
C27 top27 bot27 {c}
Rtop_28_29 top28 top29 {r}
Ltop_28_29 top28 top29 {l}
Rbot_28_29 bot28 bot29 {r}
Lbot_28_29 bot28 bot29 {l}
Rtop_28_58 top28 top58 {r}
Ltop_28_58 top28 top58 {l}
Rbot_28_58 bot28 bot58 {r}
Lbot_28_58 bot28 bot58 {l}
C28 top28 bot28 {c}
Rtop_29_30 top29 top30 {r}
Ltop_29_30 top29 top30 {l}
Rbot_29_30 bot29 bot30 {r}
Lbot_29_30 bot29 bot30 {l}
Rtop_29_59 top29 top59 {r}
Ltop_29_59 top29 top59 {l}
Rbot_29_59 bot29 bot59 {r}
Lbot_29_59 bot29 bot59 {l}
C29 top29 bot29 {c}
Rtop_30_60 top30 top60 {r}
Ltop_30_60 top30 top60 {l}
Rbot_30_60 bot30 bot60 {r}
Lbot_30_60 bot30 bot60 {l}
C30 top30 bot30 {c}
Rtop_31_32 top31 top32 {r}
Ltop_31_32 top31 top32 {l}
Rbot_31_32 bot31 bot32 {r}
Lbot_31_32 bot31 bot32 {l}
Rtop_31_61 top31 top61 {r}
Ltop_31_61 top31 top61 {l}
Rbot_31_61 bot31 bot61 {r}
Lbot_31_61 bot31 bot61 {l}
C31 top31 bot31 {c}
Rtop_32_33 top32 top33 {r}
Ltop_32_33 top32 top33 {l}
Rbot_32_33 bot32 bot33 {r}
Lbot_32_33 bot32 bot33 {l}
Rtop_32_62 top32 top62 {r}
Ltop_32_62 top32 top62 {l}
Rbot_32_62 bot32 bot62 {r}
Lbot_32_62 bot32 bot62 {l}
C32 top32 bot32 {c}
Rtop_33_34 top33 top34 {r}
Ltop_33_34 top33 top34 {l}
Rbot_33_34 bot33 bot34 {r}
Lbot_33_34 bot33 bot34 {l}
Rtop_33_63 top33 top63 {r}
Ltop_33_63 top33 top63 {l}
Rbot_33_63 bot33 bot63 {r}
Lbot_33_63 bot33 bot63 {l}
C33 top33 bot33 {c}
Rtop_34_35 top34 top35 {r}
Ltop_34_35 top34 top35 {l}
Rbot_34_35 bot34 bot35 {r}
Lbot_34_35 bot34 bot35 {l}
Rtop_34_64 top34 top64 {r}
Ltop_34_64 top34 top64 {l}
Rbot_34_64 bot34 bot64 {r}
Lbot_34_64 bot34 bot64 {l}
C34 top34 bot34 {c}
Rtop_35_36 top35 top36 {r}
Ltop_35_36 top35 top36 {l}
Rbot_35_36 bot35 bot36 {r}
Lbot_35_36 bot35 bot36 {l}
Rtop_35_65 top35 top65 {r}
Ltop_35_65 top35 top65 {l}
Rbot_35_65 bot35 bot65 {r}
Lbot_35_65 bot35 bot65 {l}
C35 top35 bot35 {c}
Rtop_36_37 top36 top37 {r}
Ltop_36_37 top36 top37 {l}
Rbot_36_37 bot36 bot37 {r}
Lbot_36_37 bot36 bot37 {l}
Rtop_36_66 top36 top66 {r}
Ltop_36_66 top36 top66 {l}
Rbot_36_66 bot36 bot66 {r}
Lbot_36_66 bot36 bot66 {l}
C36 top36 bot36 {c}
Rtop_37_38 top37 top38 {r}
Ltop_37_38 top37 top38 {l}
Rbot_37_38 bot37 bot38 {r}
Lbot_37_38 bot37 bot38 {l}
Rtop_37_67 top37 top67 {r}
Ltop_37_67 top37 top67 {l}
Rbot_37_67 bot37 bot67 {r}
Lbot_37_67 bot37 bot67 {l}
C37 top37 bot37 {c}
Rtop_38_39 top38 top39 {r}
Ltop_38_39 top38 top39 {l}
Rbot_38_39 bot38 bot39 {r}
Lbot_38_39 bot38 bot39 {l}
Rtop_38_68 top38 top68 {r}
Ltop_38_68 top38 top68 {l}
Rbot_38_68 bot38 bot68 {r}
Lbot_38_68 bot38 bot68 {l}
C38 top38 bot38 {c}
Rtop_39_40 top39 top40 {r}
Ltop_39_40 top39 top40 {l}
Rbot_39_40 bot39 bot40 {r}
Lbot_39_40 bot39 bot40 {l}
Rtop_39_69 top39 top69 {r}
Ltop_39_69 top39 top69 {l}
Rbot_39_69 bot39 bot69 {r}
Lbot_39_69 bot39 bot69 {l}
C39 top39 bot39 {c}
Rtop_40_41 top40 top41 {r}
Ltop_40_41 top40 top41 {l}
Rbot_40_41 bot40 bot41 {r}
Lbot_40_41 bot40 bot41 {l}
Rtop_40_70 top40 top70 {r}
Ltop_40_70 top40 top70 {l}
Rbot_40_70 bot40 bot70 {r}
Lbot_40_70 bot40 bot70 {l}
C40 top40 bot40 {c}
Rtop_41_42 top41 top42 {r}
Ltop_41_42 top41 top42 {l}
Rbot_41_42 bot41 bot42 {r}
Lbot_41_42 bot41 bot42 {l}
Rtop_41_71 top41 top71 {r}
Ltop_41_71 top41 top71 {l}
Rbot_41_71 bot41 bot71 {r}
Lbot_41_71 bot41 bot71 {l}
C41 top41 bot41 {c}
Rtop_42_43 top42 top43 {r}
Ltop_42_43 top42 top43 {l}
Rbot_42_43 bot42 bot43 {r}
Lbot_42_43 bot42 bot43 {l}
Rtop_42_72 top42 top72 {r}
Ltop_42_72 top42 top72 {l}
Rbot_42_72 bot42 bot72 {r}
Lbot_42_72 bot42 bot72 {l}
C42 top42 bot42 {c}
Rtop_43_44 top43 top44 {r}
Ltop_43_44 top43 top44 {l}
Rbot_43_44 bot43 bot44 {r}
Lbot_43_44 bot43 bot44 {l}
Rtop_43_73 top43 top73 {r}
Ltop_43_73 top43 top73 {l}
Rbot_43_73 bot43 bot73 {r}
Lbot_43_73 bot43 bot73 {l}
C43 top43 bot43 {c}
Rtop_44_45 top44 top45 {r}
Ltop_44_45 top44 top45 {l}
Rbot_44_45 bot44 bot45 {r}
Lbot_44_45 bot44 bot45 {l}
Rtop_44_74 top44 top74 {r}
Ltop_44_74 top44 top74 {l}
Rbot_44_74 bot44 bot74 {r}
Lbot_44_74 bot44 bot74 {l}
C44 top44 bot44 {c}
Rtop_45_46 top45 top46 {r}
Ltop_45_46 top45 top46 {l}
Rbot_45_46 bot45 bot46 {r}
Lbot_45_46 bot45 bot46 {l}
Rtop_45_75 top45 top75 {r}
Ltop_45_75 top45 top75 {l}
Rbot_45_75 bot45 bot75 {r}
Lbot_45_75 bot45 bot75 {l}
C45 top45 bot45 {c}
Rtop_46_47 top46 top47 {r}
Ltop_46_47 top46 top47 {l}
Rbot_46_47 bot46 bot47 {r}
Lbot_46_47 bot46 bot47 {l}
Rtop_46_76 top46 top76 {r}
Ltop_46_76 top46 top76 {l}
Rbot_46_76 bot46 bot76 {r}
Lbot_46_76 bot46 bot76 {l}
C46 top46 bot46 {c}
Rtop_47_48 top47 top48 {r}
Ltop_47_48 top47 top48 {l}
Rbot_47_48 bot47 bot48 {r}
Lbot_47_48 bot47 bot48 {l}
Rtop_47_77 top47 top77 {r}
Ltop_47_77 top47 top77 {l}
Rbot_47_77 bot47 bot77 {r}
Lbot_47_77 bot47 bot77 {l}
C47 top47 bot47 {c}
Rtop_48_49 top48 top49 {r}
Ltop_48_49 top48 top49 {l}
Rbot_48_49 bot48 bot49 {r}
Lbot_48_49 bot48 bot49 {l}
Rtop_48_78 top48 top78 {r}
Ltop_48_78 top48 top78 {l}
Rbot_48_78 bot48 bot78 {r}
Lbot_48_78 bot48 bot78 {l}
C48 top48 bot48 {c}
Rtop_49_50 top49 top50 {r}
Ltop_49_50 top49 top50 {l}
Rbot_49_50 bot49 bot50 {r}
Lbot_49_50 bot49 bot50 {l}
Rtop_49_79 top49 top79 {r}
Ltop_49_79 top49 top79 {l}
Rbot_49_79 bot49 bot79 {r}
Lbot_49_79 bot49 bot79 {l}
C49 top49 bot49 {c}
Rtop_50_51 top50 top51 {r}
Ltop_50_51 top50 top51 {l}
Rbot_50_51 bot50 bot51 {r}
Lbot_50_51 bot50 bot51 {l}
Rtop_50_80 top50 top80 {r}
Ltop_50_80 top50 top80 {l}
Rbot_50_80 bot50 bot80 {r}
Lbot_50_80 bot50 bot80 {l}
C50 top50 bot50 {c}
Rtop_51_52 top51 top52 {r}
Ltop_51_52 top51 top52 {l}
Rbot_51_52 bot51 bot52 {r}
Lbot_51_52 bot51 bot52 {l}
Rtop_51_81 top51 top81 {r}
Ltop_51_81 top51 top81 {l}
Rbot_51_81 bot51 bot81 {r}
Lbot_51_81 bot51 bot81 {l}
C51 top51 bot51 {c}
Rtop_52_53 top52 top53 {r}
Ltop_52_53 top52 top53 {l}
Rbot_52_53 bot52 bot53 {r}
Lbot_52_53 bot52 bot53 {l}
Rtop_52_82 top52 top82 {r}
Ltop_52_82 top52 top82 {l}
Rbot_52_82 bot52 bot82 {r}
Lbot_52_82 bot52 bot82 {l}
C52 top52 bot52 {c}
Rtop_53_54 top53 top54 {r}
Ltop_53_54 top53 top54 {l}
Rbot_53_54 bot53 bot54 {r}
Lbot_53_54 bot53 bot54 {l}
Rtop_53_83 top53 top83 {r}
Ltop_53_83 top53 top83 {l}
Rbot_53_83 bot53 bot83 {r}
Lbot_53_83 bot53 bot83 {l}
C53 top53 bot53 {c}
Rtop_54_55 top54 top55 {r}
Ltop_54_55 top54 top55 {l}
Rbot_54_55 bot54 bot55 {r}
Lbot_54_55 bot54 bot55 {l}
Rtop_54_84 top54 top84 {r}
Ltop_54_84 top54 top84 {l}
Rbot_54_84 bot54 bot84 {r}
Lbot_54_84 bot54 bot84 {l}
C54 top54 bot54 {c}
Rtop_55_56 top55 top56 {r}
Ltop_55_56 top55 top56 {l}
Rbot_55_56 bot55 bot56 {r}
Lbot_55_56 bot55 bot56 {l}
Rtop_55_85 top55 top85 {r}
Ltop_55_85 top55 top85 {l}
Rbot_55_85 bot55 bot85 {r}
Lbot_55_85 bot55 bot85 {l}
C55 top55 bot55 {c}
Rtop_56_57 top56 top57 {r}
Ltop_56_57 top56 top57 {l}
Rbot_56_57 bot56 bot57 {r}
Lbot_56_57 bot56 bot57 {l}
Rtop_56_86 top56 top86 {r}
Ltop_56_86 top56 top86 {l}
Rbot_56_86 bot56 bot86 {r}
Lbot_56_86 bot56 bot86 {l}
C56 top56 bot56 {c}
Rtop_57_58 top57 top58 {r}
Ltop_57_58 top57 top58 {l}
Rbot_57_58 bot57 bot58 {r}
Lbot_57_58 bot57 bot58 {l}
Rtop_57_87 top57 top87 {r}
Ltop_57_87 top57 top87 {l}
Rbot_57_87 bot57 bot87 {r}
Lbot_57_87 bot57 bot87 {l}
C57 top57 bot57 {c}
Rtop_58_59 top58 top59 {r}
Ltop_58_59 top58 top59 {l}
Rbot_58_59 bot58 bot59 {r}
Lbot_58_59 bot58 bot59 {l}
Rtop_58_88 top58 top88 {r}
Ltop_58_88 top58 top88 {l}
Rbot_58_88 bot58 bot88 {r}
Lbot_58_88 bot58 bot88 {l}
C58 top58 bot58 {c}
Rtop_59_60 top59 top60 {r}
Ltop_59_60 top59 top60 {l}
Rbot_59_60 bot59 bot60 {r}
Lbot_59_60 bot59 bot60 {l}
Rtop_59_89 top59 top89 {r}
Ltop_59_89 top59 top89 {l}
Rbot_59_89 bot59 bot89 {r}
Lbot_59_89 bot59 bot89 {l}
C59 top59 bot59 {c}
Rtop_60_90 top60 top90 {r}
Ltop_60_90 top60 top90 {l}
Rbot_60_90 bot60 bot90 {r}
Lbot_60_90 bot60 bot90 {l}
C60 top60 bot60 {c}
Rtop_61_62 top61 top62 {r}
Ltop_61_62 top61 top62 {l}
Rbot_61_62 bot61 bot62 {r}
Lbot_61_62 bot61 bot62 {l}
Rtop_61_91 top61 top91 {r}
Ltop_61_91 top61 top91 {l}
Rbot_61_91 bot61 bot91 {r}
Lbot_61_91 bot61 bot91 {l}
C61 top61 bot61 {c}
Rtop_62_63 top62 top63 {r}
Ltop_62_63 top62 top63 {l}
Rbot_62_63 bot62 bot63 {r}
Lbot_62_63 bot62 bot63 {l}
Rtop_62_92 top62 top92 {r}
Ltop_62_92 top62 top92 {l}
Rbot_62_92 bot62 bot92 {r}
Lbot_62_92 bot62 bot92 {l}
C62 top62 bot62 {c}
Rtop_63_64 top63 top64 {r}
Ltop_63_64 top63 top64 {l}
Rbot_63_64 bot63 bot64 {r}
Lbot_63_64 bot63 bot64 {l}
Rtop_63_93 top63 top93 {r}
Ltop_63_93 top63 top93 {l}
Rbot_63_93 bot63 bot93 {r}
Lbot_63_93 bot63 bot93 {l}
C63 top63 bot63 {c}
Rtop_64_65 top64 top65 {r}
Ltop_64_65 top64 top65 {l}
Rbot_64_65 bot64 bot65 {r}
Lbot_64_65 bot64 bot65 {l}
Rtop_64_94 top64 top94 {r}
Ltop_64_94 top64 top94 {l}
Rbot_64_94 bot64 bot94 {r}
Lbot_64_94 bot64 bot94 {l}
C64 top64 bot64 {c}
Rtop_65_66 top65 top66 {r}
Ltop_65_66 top65 top66 {l}
Rbot_65_66 bot65 bot66 {r}
Lbot_65_66 bot65 bot66 {l}
Rtop_65_95 top65 top95 {r}
Ltop_65_95 top65 top95 {l}
Rbot_65_95 bot65 bot95 {r}
Lbot_65_95 bot65 bot95 {l}
C65 top65 bot65 {c}
Rtop_66_67 top66 top67 {r}
Ltop_66_67 top66 top67 {l}
Rbot_66_67 bot66 bot67 {r}
Lbot_66_67 bot66 bot67 {l}
Rtop_66_96 top66 top96 {r}
Ltop_66_96 top66 top96 {l}
Rbot_66_96 bot66 bot96 {r}
Lbot_66_96 bot66 bot96 {l}
C66 top66 bot66 {c}
Rtop_67_68 top67 top68 {r}
Ltop_67_68 top67 top68 {l}
Rbot_67_68 bot67 bot68 {r}
Lbot_67_68 bot67 bot68 {l}
Rtop_67_97 top67 top97 {r}
Ltop_67_97 top67 top97 {l}
Rbot_67_97 bot67 bot97 {r}
Lbot_67_97 bot67 bot97 {l}
C67 top67 bot67 {c}
Rtop_68_69 top68 top69 {r}
Ltop_68_69 top68 top69 {l}
Rbot_68_69 bot68 bot69 {r}
Lbot_68_69 bot68 bot69 {l}
Rtop_68_98 top68 top98 {r}
Ltop_68_98 top68 top98 {l}
Rbot_68_98 bot68 bot98 {r}
Lbot_68_98 bot68 bot98 {l}
C68 top68 bot68 {c}
Rtop_69_70 top69 top70 {r}
Ltop_69_70 top69 top70 {l}
Rbot_69_70 bot69 bot70 {r}
Lbot_69_70 bot69 bot70 {l}
Rtop_69_99 top69 top99 {r}
Ltop_69_99 top69 top99 {l}
Rbot_69_99 bot69 bot99 {r}
Lbot_69_99 bot69 bot99 {l}
C69 top69 bot69 {c}
Rtop_70_71 top70 top71 {r}
Ltop_70_71 top70 top71 {l}
Rbot_70_71 bot70 bot71 {r}
Lbot_70_71 bot70 bot71 {l}
Rtop_70_100 top70 top100 {r}
Ltop_70_100 top70 top100 {l}
Rbot_70_100 bot70 bot100 {r}
Lbot_70_100 bot70 bot100 {l}
C70 top70 bot70 {c}
Rtop_71_72 top71 top72 {r}
Ltop_71_72 top71 top72 {l}
Rbot_71_72 bot71 bot72 {r}
Lbot_71_72 bot71 bot72 {l}
Rtop_71_101 top71 top101 {r}
Ltop_71_101 top71 top101 {l}
Rbot_71_101 bot71 bot101 {r}
Lbot_71_101 bot71 bot101 {l}
C71 top71 bot71 {c}
Rtop_72_73 top72 top73 {r}
Ltop_72_73 top72 top73 {l}
Rbot_72_73 bot72 bot73 {r}
Lbot_72_73 bot72 bot73 {l}
Rtop_72_102 top72 top102 {r}
Ltop_72_102 top72 top102 {l}
Rbot_72_102 bot72 bot102 {r}
Lbot_72_102 bot72 bot102 {l}
C72 top72 bot72 {c}
Rtop_73_74 top73 top74 {r}
Ltop_73_74 top73 top74 {l}
Rbot_73_74 bot73 bot74 {r}
Lbot_73_74 bot73 bot74 {l}
Rtop_73_103 top73 top103 {r}
Ltop_73_103 top73 top103 {l}
Rbot_73_103 bot73 bot103 {r}
Lbot_73_103 bot73 bot103 {l}
C73 top73 bot73 {c}
Rtop_74_75 top74 top75 {r}
Ltop_74_75 top74 top75 {l}
Rbot_74_75 bot74 bot75 {r}
Lbot_74_75 bot74 bot75 {l}
Rtop_74_104 top74 top104 {r}
Ltop_74_104 top74 top104 {l}
Rbot_74_104 bot74 bot104 {r}
Lbot_74_104 bot74 bot104 {l}
C74 top74 bot74 {c}
Rtop_75_76 top75 top76 {r}
Ltop_75_76 top75 top76 {l}
Rbot_75_76 bot75 bot76 {r}
Lbot_75_76 bot75 bot76 {l}
Rtop_75_105 top75 top105 {r}
Ltop_75_105 top75 top105 {l}
Rbot_75_105 bot75 bot105 {r}
Lbot_75_105 bot75 bot105 {l}
C75 top75 bot75 {c}
Rtop_76_77 top76 top77 {r}
Ltop_76_77 top76 top77 {l}
Rbot_76_77 bot76 bot77 {r}
Lbot_76_77 bot76 bot77 {l}
Rtop_76_106 top76 top106 {r}
Ltop_76_106 top76 top106 {l}
Rbot_76_106 bot76 bot106 {r}
Lbot_76_106 bot76 bot106 {l}
C76 top76 bot76 {c}
Rtop_77_78 top77 top78 {r}
Ltop_77_78 top77 top78 {l}
Rbot_77_78 bot77 bot78 {r}
Lbot_77_78 bot77 bot78 {l}
Rtop_77_107 top77 top107 {r}
Ltop_77_107 top77 top107 {l}
Rbot_77_107 bot77 bot107 {r}
Lbot_77_107 bot77 bot107 {l}
C77 top77 bot77 {c}
Rtop_78_79 top78 top79 {r}
Ltop_78_79 top78 top79 {l}
Rbot_78_79 bot78 bot79 {r}
Lbot_78_79 bot78 bot79 {l}
Rtop_78_108 top78 top108 {r}
Ltop_78_108 top78 top108 {l}
Rbot_78_108 bot78 bot108 {r}
Lbot_78_108 bot78 bot108 {l}
C78 top78 bot78 {c}
Rtop_79_80 top79 top80 {r}
Ltop_79_80 top79 top80 {l}
Rbot_79_80 bot79 bot80 {r}
Lbot_79_80 bot79 bot80 {l}
Rtop_79_109 top79 top109 {r}
Ltop_79_109 top79 top109 {l}
Rbot_79_109 bot79 bot109 {r}
Lbot_79_109 bot79 bot109 {l}
C79 top79 bot79 {c}
Rtop_80_81 top80 top81 {r}
Ltop_80_81 top80 top81 {l}
Rbot_80_81 bot80 bot81 {r}
Lbot_80_81 bot80 bot81 {l}
Rtop_80_110 top80 top110 {r}
Ltop_80_110 top80 top110 {l}
Rbot_80_110 bot80 bot110 {r}
Lbot_80_110 bot80 bot110 {l}
C80 top80 bot80 {c}
Rtop_81_82 top81 top82 {r}
Ltop_81_82 top81 top82 {l}
Rbot_81_82 bot81 bot82 {r}
Lbot_81_82 bot81 bot82 {l}
Rtop_81_111 top81 top111 {r}
Ltop_81_111 top81 top111 {l}
Rbot_81_111 bot81 bot111 {r}
Lbot_81_111 bot81 bot111 {l}
C81 top81 bot81 {c}
Rtop_82_83 top82 top83 {r}
Ltop_82_83 top82 top83 {l}
Rbot_82_83 bot82 bot83 {r}
Lbot_82_83 bot82 bot83 {l}
Rtop_82_112 top82 top112 {r}
Ltop_82_112 top82 top112 {l}
Rbot_82_112 bot82 bot112 {r}
Lbot_82_112 bot82 bot112 {l}
C82 top82 bot82 {c}
Rtop_83_84 top83 top84 {r}
Ltop_83_84 top83 top84 {l}
Rbot_83_84 bot83 bot84 {r}
Lbot_83_84 bot83 bot84 {l}
Rtop_83_113 top83 top113 {r}
Ltop_83_113 top83 top113 {l}
Rbot_83_113 bot83 bot113 {r}
Lbot_83_113 bot83 bot113 {l}
C83 top83 bot83 {c}
Rtop_84_85 top84 top85 {r}
Ltop_84_85 top84 top85 {l}
Rbot_84_85 bot84 bot85 {r}
Lbot_84_85 bot84 bot85 {l}
Rtop_84_114 top84 top114 {r}
Ltop_84_114 top84 top114 {l}
Rbot_84_114 bot84 bot114 {r}
Lbot_84_114 bot84 bot114 {l}
C84 top84 bot84 {c}
Rtop_85_86 top85 top86 {r}
Ltop_85_86 top85 top86 {l}
Rbot_85_86 bot85 bot86 {r}
Lbot_85_86 bot85 bot86 {l}
Rtop_85_115 top85 top115 {r}
Ltop_85_115 top85 top115 {l}
Rbot_85_115 bot85 bot115 {r}
Lbot_85_115 bot85 bot115 {l}
C85 top85 bot85 {c}
Rtop_86_87 top86 top87 {r}
Ltop_86_87 top86 top87 {l}
Rbot_86_87 bot86 bot87 {r}
Lbot_86_87 bot86 bot87 {l}
Rtop_86_116 top86 top116 {r}
Ltop_86_116 top86 top116 {l}
Rbot_86_116 bot86 bot116 {r}
Lbot_86_116 bot86 bot116 {l}
C86 top86 bot86 {c}
Rtop_87_88 top87 top88 {r}
Ltop_87_88 top87 top88 {l}
Rbot_87_88 bot87 bot88 {r}
Lbot_87_88 bot87 bot88 {l}
Rtop_87_117 top87 top117 {r}
Ltop_87_117 top87 top117 {l}
Rbot_87_117 bot87 bot117 {r}
Lbot_87_117 bot87 bot117 {l}
C87 top87 bot87 {c}
Rtop_88_89 top88 top89 {r}
Ltop_88_89 top88 top89 {l}
Rbot_88_89 bot88 bot89 {r}
Lbot_88_89 bot88 bot89 {l}
Rtop_88_118 top88 top118 {r}
Ltop_88_118 top88 top118 {l}
Rbot_88_118 bot88 bot118 {r}
Lbot_88_118 bot88 bot118 {l}
C88 top88 bot88 {c}
Rtop_89_90 top89 top90 {r}
Ltop_89_90 top89 top90 {l}
Rbot_89_90 bot89 bot90 {r}
Lbot_89_90 bot89 bot90 {l}
Rtop_89_119 top89 top119 {r}
Ltop_89_119 top89 top119 {l}
Rbot_89_119 bot89 bot119 {r}
Lbot_89_119 bot89 bot119 {l}
C89 top89 bot89 {c}
Rtop_90_120 top90 top120 {r}
Ltop_90_120 top90 top120 {l}
Rbot_90_120 bot90 bot120 {r}
Lbot_90_120 bot90 bot120 {l}
C90 top90 bot90 {c}
Rtop_91_92 top91 top92 {r}
Ltop_91_92 top91 top92 {l}
Rbot_91_92 bot91 bot92 {r}
Lbot_91_92 bot91 bot92 {l}
Rtop_91_121 top91 top121 {r}
Ltop_91_121 top91 top121 {l}
Rbot_91_121 bot91 bot121 {r}
Lbot_91_121 bot91 bot121 {l}
C91 top91 bot91 {c}
Rtop_92_93 top92 top93 {r}
Ltop_92_93 top92 top93 {l}
Rbot_92_93 bot92 bot93 {r}
Lbot_92_93 bot92 bot93 {l}
Rtop_92_122 top92 top122 {r}
Ltop_92_122 top92 top122 {l}
Rbot_92_122 bot92 bot122 {r}
Lbot_92_122 bot92 bot122 {l}
C92 top92 bot92 {c}
Rtop_93_94 top93 top94 {r}
Ltop_93_94 top93 top94 {l}
Rbot_93_94 bot93 bot94 {r}
Lbot_93_94 bot93 bot94 {l}
Rtop_93_123 top93 top123 {r}
Ltop_93_123 top93 top123 {l}
Rbot_93_123 bot93 bot123 {r}
Lbot_93_123 bot93 bot123 {l}
C93 top93 bot93 {c}
Rtop_94_95 top94 top95 {r}
Ltop_94_95 top94 top95 {l}
Rbot_94_95 bot94 bot95 {r}
Lbot_94_95 bot94 bot95 {l}
Rtop_94_124 top94 top124 {r}
Ltop_94_124 top94 top124 {l}
Rbot_94_124 bot94 bot124 {r}
Lbot_94_124 bot94 bot124 {l}
C94 top94 bot94 {c}
Rtop_95_96 top95 top96 {r}
Ltop_95_96 top95 top96 {l}
Rbot_95_96 bot95 bot96 {r}
Lbot_95_96 bot95 bot96 {l}
Rtop_95_125 top95 top125 {r}
Ltop_95_125 top95 top125 {l}
Rbot_95_125 bot95 bot125 {r}
Lbot_95_125 bot95 bot125 {l}
C95 top95 bot95 {c}
Rtop_96_97 top96 top97 {r}
Ltop_96_97 top96 top97 {l}
Rbot_96_97 bot96 bot97 {r}
Lbot_96_97 bot96 bot97 {l}
Rtop_96_126 top96 top126 {r}
Ltop_96_126 top96 top126 {l}
Rbot_96_126 bot96 bot126 {r}
Lbot_96_126 bot96 bot126 {l}
C96 top96 bot96 {c}
Rtop_97_98 top97 top98 {r}
Ltop_97_98 top97 top98 {l}
Rbot_97_98 bot97 bot98 {r}
Lbot_97_98 bot97 bot98 {l}
Rtop_97_127 top97 top127 {r}
Ltop_97_127 top97 top127 {l}
Rbot_97_127 bot97 bot127 {r}
Lbot_97_127 bot97 bot127 {l}
C97 top97 bot97 {c}
Rtop_98_99 top98 top99 {r}
Ltop_98_99 top98 top99 {l}
Rbot_98_99 bot98 bot99 {r}
Lbot_98_99 bot98 bot99 {l}
Rtop_98_128 top98 top128 {r}
Ltop_98_128 top98 top128 {l}
Rbot_98_128 bot98 bot128 {r}
Lbot_98_128 bot98 bot128 {l}
C98 top98 bot98 {c}
Rtop_99_100 top99 top100 {r}
Ltop_99_100 top99 top100 {l}
Rbot_99_100 bot99 bot100 {r}
Lbot_99_100 bot99 bot100 {l}
Rtop_99_129 top99 top129 {r}
Ltop_99_129 top99 top129 {l}
Rbot_99_129 bot99 bot129 {r}
Lbot_99_129 bot99 bot129 {l}
C99 top99 bot99 {c}
Rtop_100_101 top100 top101 {r}
Ltop_100_101 top100 top101 {l}
Rbot_100_101 bot100 bot101 {r}
Lbot_100_101 bot100 bot101 {l}
Rtop_100_130 top100 top130 {r}
Ltop_100_130 top100 top130 {l}
Rbot_100_130 bot100 bot130 {r}
Lbot_100_130 bot100 bot130 {l}
C100 top100 bot100 {c}
Rtop_101_102 top101 top102 {r}
Ltop_101_102 top101 top102 {l}
Rbot_101_102 bot101 bot102 {r}
Lbot_101_102 bot101 bot102 {l}
Rtop_101_131 top101 top131 {r}
Ltop_101_131 top101 top131 {l}
Rbot_101_131 bot101 bot131 {r}
Lbot_101_131 bot101 bot131 {l}
C101 top101 bot101 {c}
Rtop_102_103 top102 top103 {r}
Ltop_102_103 top102 top103 {l}
Rbot_102_103 bot102 bot103 {r}
Lbot_102_103 bot102 bot103 {l}
Rtop_102_132 top102 top132 {r}
Ltop_102_132 top102 top132 {l}
Rbot_102_132 bot102 bot132 {r}
Lbot_102_132 bot102 bot132 {l}
C102 top102 bot102 {c}
Rtop_103_104 top103 top104 {r}
Ltop_103_104 top103 top104 {l}
Rbot_103_104 bot103 bot104 {r}
Lbot_103_104 bot103 bot104 {l}
Rtop_103_133 top103 top133 {r}
Ltop_103_133 top103 top133 {l}
Rbot_103_133 bot103 bot133 {r}
Lbot_103_133 bot103 bot133 {l}
C103 top103 bot103 {c}
Rtop_104_105 top104 top105 {r}
Ltop_104_105 top104 top105 {l}
Rbot_104_105 bot104 bot105 {r}
Lbot_104_105 bot104 bot105 {l}
Rtop_104_134 top104 top134 {r}
Ltop_104_134 top104 top134 {l}
Rbot_104_134 bot104 bot134 {r}
Lbot_104_134 bot104 bot134 {l}
C104 top104 bot104 {c}
Rtop_105_106 top105 top106 {r}
Ltop_105_106 top105 top106 {l}
Rbot_105_106 bot105 bot106 {r}
Lbot_105_106 bot105 bot106 {l}
Rtop_105_135 top105 top135 {r}
Ltop_105_135 top105 top135 {l}
Rbot_105_135 bot105 bot135 {r}
Lbot_105_135 bot105 bot135 {l}
C105 top105 bot105 {c}
Rtop_106_107 top106 top107 {r}
Ltop_106_107 top106 top107 {l}
Rbot_106_107 bot106 bot107 {r}
Lbot_106_107 bot106 bot107 {l}
Rtop_106_136 top106 top136 {r}
Ltop_106_136 top106 top136 {l}
Rbot_106_136 bot106 bot136 {r}
Lbot_106_136 bot106 bot136 {l}
C106 top106 bot106 {c}
Rtop_107_108 top107 top108 {r}
Ltop_107_108 top107 top108 {l}
Rbot_107_108 bot107 bot108 {r}
Lbot_107_108 bot107 bot108 {l}
Rtop_107_137 top107 top137 {r}
Ltop_107_137 top107 top137 {l}
Rbot_107_137 bot107 bot137 {r}
Lbot_107_137 bot107 bot137 {l}
C107 top107 bot107 {c}
Rtop_108_109 top108 top109 {r}
Ltop_108_109 top108 top109 {l}
Rbot_108_109 bot108 bot109 {r}
Lbot_108_109 bot108 bot109 {l}
Rtop_108_138 top108 top138 {r}
Ltop_108_138 top108 top138 {l}
Rbot_108_138 bot108 bot138 {r}
Lbot_108_138 bot108 bot138 {l}
C108 top108 bot108 {c}
Rtop_109_110 top109 top110 {r}
Ltop_109_110 top109 top110 {l}
Rbot_109_110 bot109 bot110 {r}
Lbot_109_110 bot109 bot110 {l}
Rtop_109_139 top109 top139 {r}
Ltop_109_139 top109 top139 {l}
Rbot_109_139 bot109 bot139 {r}
Lbot_109_139 bot109 bot139 {l}
C109 top109 bot109 {c}
Rtop_110_111 top110 top111 {r}
Ltop_110_111 top110 top111 {l}
Rbot_110_111 bot110 bot111 {r}
Lbot_110_111 bot110 bot111 {l}
Rtop_110_140 top110 top140 {r}
Ltop_110_140 top110 top140 {l}
Rbot_110_140 bot110 bot140 {r}
Lbot_110_140 bot110 bot140 {l}
C110 top110 bot110 {c}
Rtop_111_112 top111 top112 {r}
Ltop_111_112 top111 top112 {l}
Rbot_111_112 bot111 bot112 {r}
Lbot_111_112 bot111 bot112 {l}
Rtop_111_141 top111 top141 {r}
Ltop_111_141 top111 top141 {l}
Rbot_111_141 bot111 bot141 {r}
Lbot_111_141 bot111 bot141 {l}
C111 top111 bot111 {c}
Rtop_112_113 top112 top113 {r}
Ltop_112_113 top112 top113 {l}
Rbot_112_113 bot112 bot113 {r}
Lbot_112_113 bot112 bot113 {l}
Rtop_112_142 top112 top142 {r}
Ltop_112_142 top112 top142 {l}
Rbot_112_142 bot112 bot142 {r}
Lbot_112_142 bot112 bot142 {l}
C112 top112 bot112 {c}
Rtop_113_114 top113 top114 {r}
Ltop_113_114 top113 top114 {l}
Rbot_113_114 bot113 bot114 {r}
Lbot_113_114 bot113 bot114 {l}
Rtop_113_143 top113 top143 {r}
Ltop_113_143 top113 top143 {l}
Rbot_113_143 bot113 bot143 {r}
Lbot_113_143 bot113 bot143 {l}
C113 top113 bot113 {c}
Rtop_114_115 top114 top115 {r}
Ltop_114_115 top114 top115 {l}
Rbot_114_115 bot114 bot115 {r}
Lbot_114_115 bot114 bot115 {l}
Rtop_114_144 top114 top144 {r}
Ltop_114_144 top114 top144 {l}
Rbot_114_144 bot114 bot144 {r}
Lbot_114_144 bot114 bot144 {l}
C114 top114 bot114 {c}
Rtop_115_116 top115 top116 {r}
Ltop_115_116 top115 top116 {l}
Rbot_115_116 bot115 bot116 {r}
Lbot_115_116 bot115 bot116 {l}
Rtop_115_145 top115 top145 {r}
Ltop_115_145 top115 top145 {l}
Rbot_115_145 bot115 bot145 {r}
Lbot_115_145 bot115 bot145 {l}
C115 top115 bot115 {c}
Rtop_116_117 top116 top117 {r}
Ltop_116_117 top116 top117 {l}
Rbot_116_117 bot116 bot117 {r}
Lbot_116_117 bot116 bot117 {l}
Rtop_116_146 top116 top146 {r}
Ltop_116_146 top116 top146 {l}
Rbot_116_146 bot116 bot146 {r}
Lbot_116_146 bot116 bot146 {l}
C116 top116 bot116 {c}
Rtop_117_118 top117 top118 {r}
Ltop_117_118 top117 top118 {l}
Rbot_117_118 bot117 bot118 {r}
Lbot_117_118 bot117 bot118 {l}
Rtop_117_147 top117 top147 {r}
Ltop_117_147 top117 top147 {l}
Rbot_117_147 bot117 bot147 {r}
Lbot_117_147 bot117 bot147 {l}
C117 top117 bot117 {c}
Rtop_118_119 top118 top119 {r}
Ltop_118_119 top118 top119 {l}
Rbot_118_119 bot118 bot119 {r}
Lbot_118_119 bot118 bot119 {l}
Rtop_118_148 top118 top148 {r}
Ltop_118_148 top118 top148 {l}
Rbot_118_148 bot118 bot148 {r}
Lbot_118_148 bot118 bot148 {l}
C118 top118 bot118 {c}
Rtop_119_120 top119 top120 {r}
Ltop_119_120 top119 top120 {l}
Rbot_119_120 bot119 bot120 {r}
Lbot_119_120 bot119 bot120 {l}
Rtop_119_149 top119 top149 {r}
Ltop_119_149 top119 top149 {l}
Rbot_119_149 bot119 bot149 {r}
Lbot_119_149 bot119 bot149 {l}
C119 top119 bot119 {c}
Rtop_120_150 top120 top150 {r}
Ltop_120_150 top120 top150 {l}
Rbot_120_150 bot120 bot150 {r}
Lbot_120_150 bot120 bot150 {l}
C120 top120 bot120 {c}
Rtop_121_122 top121 top122 {r}
Ltop_121_122 top121 top122 {l}
Rbot_121_122 bot121 bot122 {r}
Lbot_121_122 bot121 bot122 {l}
Rtop_121_151 top121 top151 {r}
Ltop_121_151 top121 top151 {l}
Rbot_121_151 bot121 bot151 {r}
Lbot_121_151 bot121 bot151 {l}
C121 top121 bot121 {c}
Rtop_122_123 top122 top123 {r}
Ltop_122_123 top122 top123 {l}
Rbot_122_123 bot122 bot123 {r}
Lbot_122_123 bot122 bot123 {l}
Rtop_122_152 top122 top152 {r}
Ltop_122_152 top122 top152 {l}
Rbot_122_152 bot122 bot152 {r}
Lbot_122_152 bot122 bot152 {l}
C122 top122 bot122 {c}
Rtop_123_124 top123 top124 {r}
Ltop_123_124 top123 top124 {l}
Rbot_123_124 bot123 bot124 {r}
Lbot_123_124 bot123 bot124 {l}
Rtop_123_153 top123 top153 {r}
Ltop_123_153 top123 top153 {l}
Rbot_123_153 bot123 bot153 {r}
Lbot_123_153 bot123 bot153 {l}
C123 top123 bot123 {c}
Rtop_124_125 top124 top125 {r}
Ltop_124_125 top124 top125 {l}
Rbot_124_125 bot124 bot125 {r}
Lbot_124_125 bot124 bot125 {l}
Rtop_124_154 top124 top154 {r}
Ltop_124_154 top124 top154 {l}
Rbot_124_154 bot124 bot154 {r}
Lbot_124_154 bot124 bot154 {l}
C124 top124 bot124 {c}
Rtop_125_126 top125 top126 {r}
Ltop_125_126 top125 top126 {l}
Rbot_125_126 bot125 bot126 {r}
Lbot_125_126 bot125 bot126 {l}
Rtop_125_155 top125 top155 {r}
Ltop_125_155 top125 top155 {l}