spice

r1 1 0 r
i1 0 1 i
v1 2 0 v

.param r=1
.param i=1
.param v=1

.list

.print dc v(nodes)

.dc
.dc r 1 2 1
.dc i 1 3 1
.dc v 0 2 1

* same again. bt now devices have probes.
.print op v(?1)
.print dc v(?1)

.op
.dc r 1 2 1
.dc i 1 3 1
.dc v 0 2 1

.status notime

.end
