spice

r1 1 0 r
i1 0 1 i

.param r=1
.param i=1

.list

.print dc v(nodes)

.dc
.dc r1 1 2 1
.dc i1 0 2 1

.end
